                                  MODFLOW-2000
      U.S. GEOLOGICAL SURVEY MODULAR FINITE-DIFFERENCE GROUND-WATER FLOW MODEL
                           VERSION 1.19.01 03/25/2010


 This model run produced both GLOBAL and LIST files.  This is the LIST file.

 
 THE FREE FORMAT OPTION HAS BEEN SELECTED
    1 LAYERS        69 ROWS        76 COLUMNS
   12 STRESS PERIOD(S) IN SIMULATION

 BAS6 -- BASIC PACKAGE, VERSION 6, 1/11/2000 INPUT READ FROM UNIT  703
          5 ELEMENTS IN IR ARRAY ARE USED BY BAS

 WEL6 -- WELL PACKAGE, VERSION 6, 1/11/2000 INPUT READ FROM UNIT  709
 #
 No named parameters
 MAXIMUM OF     46 ACTIVE WELLS AT ONE TIME
 CELL-BY-CELL FLOWS WILL BE SAVED ON UNIT  740
 AUXILIARY WELL VARIABLE: IFACE           
 AUXILIARY WELL VARIABLE: QFACT           
 AUXILIARY WELL VARIABLE: CELLGRP         
        322 ELEMENTS IN RX ARRAY ARE USED BY WEL

 RIV6 -- RIVER PACKAGE, VERSION 6, 1/11/2000 INPUT READ FROM UNIT  708
 #
 No named parameters
 MAXIMUM OF    186 ACTIVE RIVER REACHES AT ONE TIME
 CELL-BY-CELL FLOWS WILL BE SAVED ON UNIT  740
 AUXILIARY RIVER VARIABLE: IFACE           
 AUXILIARY RIVER VARIABLE: CONDFACT        
 AUXILIARY RIVER VARIABLE: CELLGRP         
       1674 ELEMENTS IN RX ARRAY ARE USED BY RIV

 RCH6 -- RECHARGE PACKAGE, VERSION 6, 1/11/2000 INPUT READ FROM UNIT  716
 #
 No named parameters
 OPTION 3 -- RECHARGE TO HIGHEST ACTIVE NODE IN EACH VERTICAL COLUMN
 CELL-BY-CELL FLOWS WILL BE SAVED ON UNIT  740
       5244 ELEMENTS IN RX ARRAY ARE USED BY RCH
       5244 ELEMENTS IN IR ARRAY ARE USED BY RCH

       7240  ELEMENTS OF RX ARRAY USED OUT OF       7240
          0  ELEMENTS OF RZ ARRAY USED OUT OF          1
       5249  ELEMENTS OF IR ARRAY USED OUT OF       5249
1
                                                                                 
                                                                                 



                     BOUNDARY ARRAY FOR LAYER   1
 READING ON UNIT  703 WITH FORMAT: (FREE)              

 AQUIFER HEAD WILL BE SET TO -999.00     AT ALL NO-FLOW NODES (IBOUND=0).



                       INITIAL HEAD FOR LAYER   1
 READING ON UNIT  703 WITH FORMAT: (FREE)              

 OUTPUT CONTROL IS SPECIFIED ONLY AT TIME STEPS FOR WHICH OUTPUT IS DESIRED
 COMPACT CELL-BY-CELL BUDGET FILES WILL BE WRITTEN
 AUXILIARY DATA WILL BE SAVED IN CELL-BY-CELL BUDGET FILES
 HEAD PRINT FORMAT CODE IS   0    DRAWDOWN PRINT FORMAT CODE IS   0
 HEADS WILL BE SAVED ON UNIT  730    DRAWDOWNS WILL BE SAVED ON UNIT    0
1
                            STRESS PERIOD NO.    1, LENGTH =   31.00000    
                            -----------------------------------------------

                              NUMBER OF TIME STEPS =     3

                               MULTIPLIER FOR DELT =     1.000

                            INITIAL TIME STEP SIZE =   10.33333    

 WELL NO.  LAYER   ROW   COL   STRESS RATE         IFACE           QFACT           CELLGRP         
 --------------------------------------------------------------------------------------------------
      1      1     26      6       6259.           0.000           1.000           1.000    
      2      1     25      7       8508.           0.000           1.000           1.000    
      3      1     27      5       2982.           0.000           1.000           2.000    
      4      1     26      6       993.0           0.000           1.000           2.000    
      5      1      8     18       3187.           0.000           1.000           3.000    
      6      1      8     18       9645.           0.000           1.000           4.000    
      7      1      8     19       2459.           0.000           1.000           4.000    
      8      1     62     59      -240.7           0.000           1.000           5.000    
      9      1     63     58      -831.0           0.000           1.000           5.000    
     10      1     63     57      -752.2           0.000           1.000           5.000    
     11      1     64     54      -814.3           0.000           1.000           5.000    
     12      1     64     53      -175.0           0.000           1.000           5.000    
     13      1     65     51      -804.5           0.000           1.000           5.000    
     14      1     65     50      -804.5           0.000           1.000           5.000    
     15      1     65     49      -295.9           0.000           1.000           5.000    
     16      1     66     46      -790.0           0.000           1.000           5.000    
     17      1     66     45      -790.0           0.000           1.000           5.000    
     18      1     66     44      -790.0           0.000           1.000           5.000    
     19      1     66     43      -789.4           0.000           1.000           5.000    
     20      1     66     42      -789.0           0.000           1.000           5.000    
     21      1     66     41      -788.7           0.000           1.000           5.000    
     22      1     66     40      -788.2           0.000           1.000           5.000    
     23      1     34     73      -622.2           0.000           1.000           6.000    
     24      1     38     72      -633.9           0.000           1.000           6.000    
     25      1     39     72      -934.8           0.000           1.000           6.000    
     26      1     42     71      -730.6           0.000           1.000           6.000    
     27      1     43     71      -954.0           0.000           1.000           6.000    
     28      1     44     70      -48.94           0.000           1.000           6.000    
     29      1     45     70      -1014.           0.000           1.000           6.000    
     30      1     46     69      -74.86           0.000           1.000           6.000    
     31      1     47     69      -1017.           0.000           1.000           6.000    
     32      1     48     68      -117.2           0.000           1.000           6.000    
     33      1     49     68      -1017.           0.000           1.000           6.000    
     34      1     50     67      -159.5           0.000           1.000           6.000    
     35      1     51     67      -1017.           0.000           1.000           6.000    
     36      1     52     66      -201.9           0.000           1.000           6.000    
     37      1     53     66      -1017.           0.000           1.000           6.000    
     38      1     54     65      -220.1           0.000           1.000           6.000    
     39      1     55     65      -1011.           0.000           1.000           6.000    
     40      1     56     64      -204.8           0.000           1.000           6.000    
     41      1     57     64      -1017.           0.000           1.000           6.000    
     42      1     58     63      -639.5           0.000           1.000           6.000    
     43      1     59     62      -473.7           0.000           1.000           6.000    
     44      1     60     61      -321.0           0.000           1.000           6.000    
     45      1     61     60      -230.8           0.000           1.000           6.000    
     46      1     62     59      -145.1           0.000           1.000           6.000    

     46 WELLS

 REACH NO.  LAYER   ROW   COL     STAGE      CONDUCTANCE     BOTTOM EL.         IFACE           CONDFACT        CELLGRP         
 -------------------------------------------------------------------------------------------------------------------------------
      1      1     62     59       145.4          0.1625E+05       144.5           6.000           865.3           1.000    
      2      1     62     58       146.2          0.1867E+05       145.3           6.000           994.2           1.000    
      3      1     62     57       146.9          0.1139E+05       146.0           6.000           606.4           1.000    
      4      1     63     57       147.4           7296.           146.5           6.000           388.4           1.000    
      5      1     63     56       148.0          0.1868E+05       147.1           6.000           994.7           1.000    
      6      1     63     55       148.9          0.1862E+05       147.9           6.000           991.3           1.000    
      7      1     63     54       149.8          0.1861E+05       148.8           6.000           991.1           1.000    
      8      1     63     53       150.6          0.1861E+05       149.7           6.000           990.8           1.000    
      9      1     63     52       151.5          0.1861E+05       150.5           6.000           991.0           1.000    
     10      1     63     51       152.0           882.2           151.0           6.000           46.97           1.000    
     11      1     63     51       152.4          0.2095E+05       151.4           6.000           952.3           2.000    
     12      1     63     50       153.2          0.2202E+05       152.2           6.000           1001.           2.000    
     13      1     63     49       154.1          0.2203E+05       153.1           6.000           1001.           2.000    
     14      1     63     48       154.9          0.2203E+05       154.0           6.000           1001.           2.000    
     15      1     63     47       155.8          0.2202E+05       154.8           6.000           1001.           2.000    
     16      1     63     46       156.6          0.2201E+05       155.7           6.000           1001.           2.000    
     17      1     63     45       157.5          0.2201E+05       156.5           6.000           1001.           2.000    
     18      1     63     44       158.3          0.2214E+05       157.4           6.000           1006.           2.000    
     19      1     63     43       159.1          0.1570E+05       158.1           6.000           713.7           2.000    
     20      1     62     43       159.5           6841.           158.6           6.000           311.0           2.000    
     21      1     62     42       160.1          0.2254E+05       159.2           6.000           1025.           2.000    
     22      1     62     41       161.0          0.2254E+05       160.0           6.000           1025.           2.000    
     23      1     62     40       161.8          0.2254E+05       160.9           6.000           1025.           2.000    
     24      1     62     39       162.5          0.1088E+05       161.6           6.000           494.5           2.000    
     25      1     61     39       162.9          0.1168E+05       162.0           6.000           530.9           2.000    
     26      1     61     38       163.6          0.2351E+05       162.7           6.000           1068.           2.000    
     27      1     61     37       164.4          0.1933E+05       163.5           6.000           878.7           2.000    
     28      1     60     37       164.9           6792.           164.0           6.000           308.7           2.000    
     29      1     60     36       165.6          0.2612E+05       164.7           6.000           1187.           2.000    
     30      1     60     35       166.2           6512.           165.3           6.000           296.0           2.000    
     31      1     59     35       166.7          0.2094E+05       165.9           6.000           951.6           2.000    
     32      1     59     34       167.4          0.1412E+05       166.5           6.000           641.9           2.000    
     33      1     58     34       167.9          0.1357E+05       167.1           6.000           617.0           2.000    
     34      1     58     33       168.6          0.2194E+05       167.8           6.000           997.2           2.000    
     35      1     57     33       169.2           7017.           168.3           6.000           319.0           2.000    
     36      1     57     32       169.7          0.2032E+05       168.9           6.000           923.7           2.000    
     37      1     56     32       170.6          0.2331E+05       169.7           6.000           1060.           2.000    
     38      1     55     32       171.4          0.2185E+05       170.6           6.000           993.3           2.000    
     39      1     54     32       172.3          0.2186E+05       171.5           6.000           993.8           2.000    
     40      1     53     32       173.1          0.2183E+05       172.3           6.000           992.5           2.000    
     41      1     52     32       174.0          0.2269E+05       173.2           6.000           1031.           2.000    
     42      1     51     32       174.8          0.2070E+05       174.0           6.000           940.9           2.000    
     43      1     51     31       175.3           3920.           174.5           6.000           178.2           2.000    
     44      1     50     31       175.9          0.2893E+05       175.1           6.000           1315.           2.000    
     45      1     50     30       176.5           91.16           175.7           6.000           4.143           2.000    
     46      1     49     30       177.0          0.2836E+05       176.3           6.000           1289.           2.000    
     47      1     48     30       177.7           5717.           176.9           6.000           259.9           2.000    
     48      1     48     29       178.2          0.2049E+05       177.4           6.000           931.2           2.000    
     49      1     47     29       179.1          0.2479E+05       178.3           6.000           1127.           2.000    
     50      1     46     29       179.7           5384.           178.9           6.000           244.7           2.000    
     51      1     46     28       180.1          0.1769E+05       179.4           6.000           804.1           2.000    
     52      1     45     28       180.9          0.2380E+05       180.2           6.000           1082.           2.000    
     53      1     44     28       181.8          0.2048E+05       181.0           6.000           931.0           2.000    
     54      1     44     27       182.2           2682.           181.5           6.000           121.9           2.000    
     55      1     43     27       182.8          0.2858E+05       182.1           6.000           1299.           2.000    
     56      1     42     27       183.6          0.1075E+05       182.9           6.000           488.7           2.000    
     57      1     42     26       184.0          0.1181E+05       183.3           6.000           536.9           2.000    
     58      1     41     26       184.3           5089.           183.6           6.000           231.3           2.000    
     59      1     41     27       184.6           5477.           183.8           6.000           249.0           2.000    
     60      1     41     26       185.0          0.1620E+05       184.3           6.000           736.4           2.000    
     61      1     40     26       185.6          0.1411E+05       184.9           6.000           641.2           2.000    
     62      1     40     25       186.1          0.1379E+05       185.4           6.000           626.7           2.000    
     63      1     39     25       186.9          0.2619E+05       186.2           6.000           1190.           2.000    
     64      1     38     25       187.8          0.2055E+05       187.1           6.000           934.1           2.000    
     65      1     38     24       188.3           5039.           187.6           6.000           229.1           2.000    
     66      1     37     24       188.9          0.2683E+05       188.2           6.000           1220.           2.000    
     67      1     37     23       189.5           6240.           188.9           6.000           283.6           2.000    
     68      1     36     23       190.1          0.2545E+05       189.5           6.000           1157.           2.000    
     69      1     36     22       190.7           3345.           190.0           6.000           152.0           2.000    
     70      1     35     22       191.2          0.2175E+05       190.5           6.000           988.6           2.000    
     71      1     35     21       192.1          0.2366E+05       191.4           6.000           1076.           2.000    
     72      1     35     20       193.0          0.2731E+05       192.4           6.000           1241.           2.000    
     73      1     35     19       193.6           3661.           193.0           6.000           166.4           2.000    
     74      1     34     19       194.2          0.2366E+05       193.6           6.000           1076.           2.000    
     75      1     34     18       194.9          0.1242E+05       194.3           6.000           564.4           2.000    
     76      1     33     18       195.4          0.1505E+05       194.8           6.000           684.2           2.000    
     77      1     33     17       196.1          0.2054E+05       195.5           6.000           933.7           2.000    
     78      1     32     17       196.6           7016.           196.0           6.000           318.9           2.000    
     79      1     32     16       197.3          0.2726E+05       196.7           6.000           1239.           2.000    
     80      1     32     15       197.8           1893.           197.3           6.000           86.03           2.000    
     81      1     31     15       198.4          0.2508E+05       197.8           6.000           1140.           2.000    
     82      1     31     14       199.1          0.1149E+05       198.5           6.000           522.5           2.000    
     83      1     30     14       199.6          0.1762E+05       199.1           6.000           801.1           2.000    
     84      1     30     13       200.3          0.1659E+05       199.7           6.000           754.1           2.000    
     85      1     29     13       200.8           9960.           200.3           6.000           452.7           2.000    
     86      1     29     12       201.5          0.2623E+05       201.0           6.000           1192.           2.000    
     87      1     29     11       202.1           2956.           201.5           6.000           134.4           2.000    
     88      1     28     11       202.5          0.2077E+05       202.0           6.000           944.3           2.000    
     89      1     28     10       203.4          0.2198E+05       202.8           6.000           999.1           2.000    
     90      1     28      9       204.2          0.2197E+05       203.7           6.000           998.9           2.000    
     91      1     28      8       205.1          0.2469E+05       204.6           6.000           1122.           2.000    
     92      1     28      7       205.6           1984.           205.1           6.000           90.20           2.000    
     93      1     27      7       206.2          0.2646E+05       205.7           6.000           1203.           2.000    
     94      1     27      6       206.9           8232.           206.3           6.000           374.2           2.000    
     95      1     26      6       207.3          0.1257E+05       206.8           6.000           571.2           2.000    
     96      1     63     51       152.0           1457.           151.0           6.000           95.90           3.000    
     97      1     62     51       152.6          0.1820E+05       151.7           6.000           1198.           3.000    
     98      1     61     51       153.4           5802.           152.4           6.000           382.0           3.000    
     99      1     61     50       154.1          0.1799E+05       153.1           6.000           1184.           3.000    
    100      1     61     49       154.7           1330.           153.7           6.000           87.57           3.000    
    101      1     60     49       155.4          0.2109E+05       154.4           6.000           1389.           3.000    
    102      1     59     49       156.5          0.1410E+05       155.5           6.000           928.2           3.000    
    103      1     59     48       157.0           2748.           156.1           6.000           180.9           3.000    
    104      1     58     48       157.5          0.1294E+05       156.5           6.000           852.1           3.000    
    105      1     58     47       157.9           615.8           157.0           6.000           40.54           3.000    
    106      1     59     47       158.1           6457.           157.2           6.000           425.2           3.000    
    107      1     58     47       158.6           8408.           157.7           6.000           553.6           3.000    
    108      1     58     46       159.4          0.1936E+05       158.5           6.000           1275.           3.000    
    109      1     57     46       160.1           2240.           159.2           6.000           147.5           3.000    
    110      1     57     45       160.8          0.1972E+05       159.9           6.000           1298.           3.000    
    111      1     57     44       161.4           2210.           160.6           6.000           145.5           3.000    
    112      1     56     44       162.1          0.1988E+05       161.2           6.000           1309.           3.000    
    113      1     55     44       162.7           706.4           161.9           6.000           46.51           3.000    
    114      1     55     43       163.3          0.1576E+05       162.4           6.000           1038.           3.000    
    115      1     54     43       164.3          0.1766E+05       163.4           6.000           1163.           3.000    
    116      1     53     43       165.0           5345.           164.2           6.000           351.9           3.000    
    117      1     53     42       165.6          0.1313E+05       164.7           6.000           864.6           3.000    
    118      1     52     42       166.2           9019.           165.4           6.000           593.8           3.000    
    119      1     52     41       167.0          0.1634E+05       166.2           6.000           1076.           3.000    
    120      1     52     40       167.9          0.1162E+05       167.1           6.000           765.2           3.000    
    121      1     51     40       168.4           5643.           167.6           6.000           371.5           3.000    
    122      1     51     39       169.1          0.1726E+05       168.3           6.000           1137.           3.000    
    123      1     51     38       169.8           4893.           169.0           6.000           322.2           3.000    
    124      1     50     38       170.5          0.1657E+05       169.7           6.000           1091.           3.000    
    125      1     49     38       171.4          0.1286E+05       170.6           6.000           846.6           3.000    
    126      1     49     37       171.9           3694.           171.1           6.000           243.2           3.000    
    127      1     48     37       172.5          0.1660E+05       171.7           6.000           1093.           3.000    
    128      1     47     37       173.5          0.1523E+05       172.7           6.000           1003.           3.000    
    129      1     47     36       174.0           1364.           173.2           6.000           89.84           3.000    
    130      1     46     36       174.5          0.1660E+05       173.8           6.000           1093.           3.000    
    131      1     45     36       175.3           9654.           174.6           6.000           635.6           3.000    
    132      1     45     35       176.1          0.1625E+05       175.4           6.000           1070.           3.000    
    133      1     45     34       176.8           6289.           176.1           6.000           414.1           3.000    
    134      1     44     34       177.4          0.1245E+05       176.7           6.000           819.7           3.000    
    135      1     44     33       178.2          0.1278E+05       177.5           6.000           841.3           3.000    
    136      1     43     33       178.7           5949.           178.1           6.000           391.7           3.000    
    137      1     43     32       179.5          0.1869E+05       178.8           6.000           1231.           3.000    
    138      1     43     31       180.1           706.6           179.5           6.000           46.52           3.000    
    139      1     42     31       180.7          0.1798E+05       180.0           6.000           1184.           3.000    
    140      1     42     30       181.4           6273.           180.8           6.000           413.0           3.000    
    141      1     41     30       182.2          0.1760E+05       181.5           6.000           1159.           3.000    
    142      1     40     30       182.8           3221.           182.2           6.000           212.1           3.000    
    143      1     40     29       183.3          0.1332E+05       182.7           6.000           877.0           3.000    
    144      1     39     29       184.2          0.1639E+05       183.6           6.000           1079.           3.000    
    145      1     38     29       185.0           8003.           184.4           6.000           526.9           3.000    
    146      1     38     28       185.5           8454.           184.9           6.000           556.6           3.000    
    147      1     37     28       186.2          0.1649E+05       185.7           6.000           1086.           3.000    
    148      1     36     28       187.1          0.1172E+05       186.5           6.000           771.4           3.000    
    149      1     36     27       187.6           4772.           187.1           6.000           314.2           3.000    
    150      1     35     27       188.3          0.1649E+05       187.7           6.000           1086.           3.000    
    151      1     34     27       189.2          0.1383E+05       188.7           6.000           910.7           3.000    
    152      1     34     26       189.7           3088.           189.2           6.000           203.3           3.000    
    153      1     33     26       190.3          0.1698E+05       189.8           6.000           1118.           3.000    
    154      1     32     26       191.2          0.1221E+05       190.7           6.000           804.1           3.000    
    155      1     32     25       191.8           4840.           191.2           6.000           318.7           3.000    
    156      1     31     25       192.4          0.1713E+05       191.9           6.000           1128.           3.000    
    157      1     30     25       193.2           9460.           192.8           6.000           622.9           3.000    
    158      1     30     24       193.8           7665.           193.3           6.000           504.7           3.000    
    159      1     29     24       194.5          0.1619E+05       194.0           6.000           1066.           3.000    
    160      1     28     24       195.5          0.1511E+05       195.0           6.000           995.0           3.000    
    161      1     27     24       196.4          0.1517E+05       196.0           6.000           999.0           3.000    
    162      1     26     24       197.3          0.1525E+05       196.9           6.000           1004.           3.000    
    163      1     25     24       197.8           943.3           197.4           6.000           62.11           3.000    
    164      1     25     23       198.3          0.1440E+05       197.9           6.000           948.0           3.000    
    165      1     24     23       199.2          0.1534E+05       198.8           6.000           1010.           3.000    
    166      1     23     23       200.2          0.1720E+05       199.8           6.000           1132.           3.000    
    167      1     22     23       200.8           1711.           200.4           6.000           112.7           3.000    
    168      1     22     22       201.3          0.1541E+05       200.9           6.000           1015.           3.000    
    169      1     21     22       202.3          0.1601E+05       201.9           6.000           1054.           3.000    
    170      1     21     21       202.8           1110.           202.4           6.000           73.10           3.000    
    171      1     20     21       203.4          0.1664E+05       203.0           6.000           1096.           3.000    
    172      1     19     21       204.4          0.1640E+05       204.0           6.000           1080.           3.000    
    173      1     18     21       204.9           2176.           204.6           6.000           143.3           3.000    
    174      1     18     20       205.4          0.1420E+05       205.1           6.000           935.1           3.000    
    175      1     17     20       206.4          0.1590E+05       206.1           6.000           1047.           3.000    
    176      1     16     20       207.3          0.1408E+05       207.0           6.000           927.2           3.000    
    177      1     16     19       207.9           5897.           207.6           6.000           388.3           3.000    
    178      1     15     19       208.4          0.1025E+05       208.1           6.000           674.8           3.000    
    179      1     15     18       209.1          0.1207E+05       208.8           6.000           794.7           3.000    
    180      1     14     18       210.0          0.1853E+05       209.8           6.000           1220.           3.000    
    181      1     13     18       211.1          0.1511E+05       210.8           6.000           994.9           3.000    
    182      1     12     18       212.0          0.1515E+05       211.7           6.000           997.5           3.000    
    183      1     11     18       212.9          0.1519E+05       212.7           6.000           1000.           3.000    
    184      1     10     18       213.9          0.1517E+05       213.6           6.000           998.9           3.000    
    185      1      9     18       214.8          0.1523E+05       214.6           6.000           1003.           3.000    
    186      1      8     18       215.6          0.1202E+05       215.4           6.000           791.3           3.000    

    186 RIVER REACHES

                 RECHARGE =   0.00000    
 
 SOLVING FOR HEAD 

 OUTPUT CONTROL FOR STRESS PERIOD    1   TIME STEP   1
    PRINT BUDGET
    SAVE HEAD FOR ALL LAYERS
    SAVE BUDGET
 UBDSV1 SAVING "         STORAGE" ON UNIT 740 AT TIME STEP  1, STRESS PERIOD   1
 UBDSV2 SAVING "   CONSTANT HEAD" ON UNIT 740 AT TIME STEP  1, STRESS PERIOD   1
 UBDSV1 SAVING "FLOW RIGHT FACE " ON UNIT 740 AT TIME STEP  1, STRESS PERIOD   1
 UBDSV1 SAVING "FLOW FRONT FACE " ON UNIT 740 AT TIME STEP  1, STRESS PERIOD   1
 UBDSV4 SAVING "           WELLS" ON UNIT 740 AT TIME STEP  1, STRESS PERIOD   1
 UBDSV4 SAVING "   RIVER LEAKAGE" ON UNIT 740 AT TIME STEP  1, STRESS PERIOD   1
 UBDSV3 SAVING "        RECHARGE" ON UNIT 740 AT TIME STEP  1, STRESS PERIOD   1


 ***Link-MT3DMS Package***
 OPENING LINK-MT3DMS OUTPUT FILE: Taoerhe.hff                                                                                                                                                                                             
 ON UNIT NUMBER:   333
 FILE TYPE: UNFORMATTED
 HEADER OPTION: STANDARD
 ***Link-MT3DMS Package***


 SAVING SATURATED THICKNESS AND FLOW TERMS ON UNIT  333 FOR MT3DMS
 BY THE LINK-MT3DMS PACKAGE V6.3 AT TIME STEP    1, STRESS PERIOD    1


 HEAD WILL BE SAVED ON UNIT  730 AT END OF TIME STEP   1, STRESS PERIOD    1
1
  VOLUMETRIC BUDGET FOR ENTIRE MODEL AT END OF TIME STEP  1 IN STRESS PERIOD   1
  ------------------------------------------------------------------------------

     CUMULATIVE VOLUMES      L**3       RATES FOR THIS TIME STEP      L**3/T
     ------------------                 ------------------------

           IN:                                      IN:
           ---                                      ---
             STORAGE =     4517298.0000               STORAGE =      437157.8750
       CONSTANT HEAD =           0.0000         CONSTANT HEAD =           0.0000
               WELLS =      351678.8438                 WELLS =       34033.4375
       RIVER LEAKAGE =    18988466.0000         RIVER LEAKAGE =     1837593.5000
            RECHARGE =           0.0000              RECHARGE =           0.0000

            TOTAL IN =    23857444.0000              TOTAL IN =     2308784.7500

          OUT:                                     OUT:
          ----                                     ----
             STORAGE =    23608896.0000               STORAGE =     2284732.0000
       CONSTANT HEAD =           0.0000         CONSTANT HEAD =           0.0000
               WELLS =      248674.8906                 WELLS =       24065.3125
       RIVER LEAKAGE =           0.0000         RIVER LEAKAGE =           0.0000
            RECHARGE =           0.0000              RECHARGE =           0.0000

           TOTAL OUT =    23857570.0000             TOTAL OUT =     2308797.2500

            IN - OUT =        -126.0000              IN - OUT =         -12.5000

 PERCENT DISCREPANCY =           0.00     PERCENT DISCREPANCY =           0.00






          TIME SUMMARY AT END OF TIME STEP   1 IN STRESS PERIOD    1
                    SECONDS     MINUTES      HOURS       DAYS        YEARS
                    -----------------------------------------------------------
   TIME STEP LENGTH 8.92800E+05  14880.      248.00      10.333     2.82911E-02
 STRESS PERIOD TIME 8.92800E+05  14880.      248.00      10.333     2.82911E-02
         TOTAL TIME 8.92800E+05  14880.      248.00      10.333     2.82911E-02
1

 HEADS AT RIVER CELLS ARE BELOW THE BOTTOM OF THE RIVER BED AT THE CELLS LISTED
 BELOW.  THESE CONDITIONS DIMINISH THE IMPACT OF THE OBSERVATION ON ESTIMATES OF
 ALL PARAMETERS EXCEPT THOSE THAT CONTROL THE HYDRAULIC CONDUCTIVITY OF THE
 RIVER BED.  (SEE TEXT FOR MORE INFORMATION).

 OBS#    433, ID no_rivf0    , TIME STEP     1
    LAYER   ROW  COLUMN
      1     63     51
      1     63     51
      1     63     50
      1     63     49
      1     63     48
      1     63     47
      1     63     46
      1     63     45
      1     63     44
      1     63     43
      1     62     43
      1     62     42
      1     62     41
      1     62     40
      1     62     39
      1     61     39
      1     61     38
      1     61     37
      1     60     37
      1     60     36
      1     60     35
      1     59     35
      1     59     34
      1     58     34
      1     58     33
      1     57     33
      1     57     32
      1     56     32
      1     55     32
      1     54     32
      1     53     32
      1     52     32
      1     51     32
      1     51     31
      1     50     31
      1     50     30
      1     49     30
      1     48     30
      1     48     29
      1     47     29
      1     46     29
      1     46     28
      1     45     28
      1     44     28
      1     44     27
      1     43     27
      1     42     27
      1     42     26
      1     41     26
      1     41     27
      1     41     26
      1     40     26
      1     40     25
      1     39     25
      1     38     25
      1     38     24
      1     37     24
      1     37     23
      1     36     23
      1     36     22
      1     35     22
      1     35     21
      1     35     20
      1     35     19
      1     34     19
      1     34     18
      1     33     18
      1     33     17
      1     32     17
      1     32     16
      1     32     15
      1     31     15
      1     31     14
      1     30     14
      1     30     13
      1     29     13
      1     29     12
      1     29     11
      1     28     11
      1     28     10
      1     28      9
      1     28      8
      1     28      7
      1     27      7
      1     27      6
      1     26      6
     86 OF THE     86 CELLS USED TO SIMULATE THE GAIN OR LOSS ARE
                      AFFECTED.

 OBS#    469, ID no_rivf36   , TIME STEP     1
    LAYER   ROW  COLUMN
      1     63     51
      1     63     51
      1     63     51
      1     62     51
      1     61     51
      1     61     50
      1     61     49
      1     60     49
      1     59     49
      1     59     48
      1     58     48
      1     58     47
      1     59     47
      1     58     47
      1     58     46
      1     57     46
      1     57     45
      1     57     44
      1     56     44
      1     55     44
      1     55     43
      1     54     43
      1     53     43
      1     53     42
      1     52     42
      1     52     41
      1     52     40
      1     51     40
      1     51     39
      1     51     38
      1     50     38
      1     49     38
      1     49     37
      1     48     37
      1     47     37
      1     47     36
      1     46     36
      1     45     36
      1     45     35
      1     45     34
      1     44     34
      1     44     33
      1     43     33
      1     43     32
      1     43     31
      1     42     31
      1     42     30
      1     41     30
      1     40     30
      1     40     29
      1     39     29
      1     38     29
      1     38     28
      1     37     28
      1     36     28
      1     36     27
      1     35     27
      1     34     27
      1     34     26
      1     33     26
      1     32     26
      1     32     25
      1     31     25
      1     30     25
      1     30     24
      1     29     24
      1     28     24
      1     27     24
      1     26     24
      1     25     24
      1     25     23
      1     24     23
      1     23     23
      1     22     23
      1     22     22
      1     21     22
      1     21     21
      1     20     21
      1     19     21
      1     18     21
      1     18     20
      1     17     20
      1     16     20
      1     16     19
      1     15     19
      1     15     18
      1     14     18
      1     13     18
      1     12     18
      1     11     18
      1     10     18
      1      9     18
      1      8     18
     93 OF THE     93 CELLS USED TO SIMULATE THE GAIN OR LOSS ARE
                      AFFECTED.

 OBS#    505, ID no_rivf72   , TIME STEP     1
    LAYER   ROW  COLUMN
      1     62     59
      1     62     58
      1     62     57
      1     63     57
      1     63     56
      1     63     55
      1     63     54
      1     63     53
      1     63     52
      1     63     51
     10 OF THE     10 CELLS USED TO SIMULATE THE GAIN OR LOSS ARE
                      AFFECTED.
 
 SOLVING FOR HEAD 

 OUTPUT CONTROL FOR STRESS PERIOD    1   TIME STEP   2
    PRINT BUDGET
    SAVE HEAD FOR ALL LAYERS
    SAVE BUDGET
 UBDSV1 SAVING "         STORAGE" ON UNIT 740 AT TIME STEP  2, STRESS PERIOD   1
 UBDSV2 SAVING "   CONSTANT HEAD" ON UNIT 740 AT TIME STEP  2, STRESS PERIOD   1
 UBDSV1 SAVING "FLOW RIGHT FACE " ON UNIT 740 AT TIME STEP  2, STRESS PERIOD   1
 UBDSV1 SAVING "FLOW FRONT FACE " ON UNIT 740 AT TIME STEP  2, STRESS PERIOD   1
 UBDSV4 SAVING "           WELLS" ON UNIT 740 AT TIME STEP  2, STRESS PERIOD   1
 UBDSV4 SAVING "   RIVER LEAKAGE" ON UNIT 740 AT TIME STEP  2, STRESS PERIOD   1
 UBDSV3 SAVING "        RECHARGE" ON UNIT 740 AT TIME STEP  2, STRESS PERIOD   1

 SAVING SATURATED THICKNESS AND FLOW TERMS ON UNIT  333 FOR MT3DMS
 BY THE LINK-MT3DMS PACKAGE V6.3 AT TIME STEP    2, STRESS PERIOD    1


 HEAD WILL BE SAVED ON UNIT  730 AT END OF TIME STEP   2, STRESS PERIOD    1
1
  VOLUMETRIC BUDGET FOR ENTIRE MODEL AT END OF TIME STEP  2 IN STRESS PERIOD   1
  ------------------------------------------------------------------------------

     CUMULATIVE VOLUMES      L**3       RATES FOR THIS TIME STEP      L**3/T
     ------------------                 ------------------------

           IN:                                      IN:
           ---                                      ---
             STORAGE =     8621995.0000               STORAGE =      397228.7500
       CONSTANT HEAD =           0.0000         CONSTANT HEAD =           0.0000
               WELLS =      703357.6875                 WELLS =       34033.4375
       RIVER LEAKAGE =    37976932.0000         RIVER LEAKAGE =     1837593.5000
            RECHARGE =           0.0000              RECHARGE =           0.0000

            TOTAL IN =    47302284.0000              TOTAL IN =     2268855.7500

          OUT:                                     OUT:
          ----                                     ----
             STORAGE =    46805096.0000               STORAGE =     2244793.7500
       CONSTANT HEAD =           0.0000         CONSTANT HEAD =           0.0000
               WELLS =      497349.7812                 WELLS =       24065.3125
       RIVER LEAKAGE =           0.0000         RIVER LEAKAGE =           0.0000
            RECHARGE =           0.0000              RECHARGE =           0.0000

           TOTAL OUT =    47302444.0000             TOTAL OUT =     2268859.0000

            IN - OUT =        -160.0000              IN - OUT =          -3.2500

 PERCENT DISCREPANCY =           0.00     PERCENT DISCREPANCY =           0.00






          TIME SUMMARY AT END OF TIME STEP   2 IN STRESS PERIOD    1
                    SECONDS     MINUTES      HOURS       DAYS        YEARS
                    -----------------------------------------------------------
   TIME STEP LENGTH 8.92800E+05  14880.      248.00      10.333     2.82911E-02
 STRESS PERIOD TIME 1.78560E+06  29760.      496.00      20.667     5.65822E-02
         TOTAL TIME 1.78560E+06  29760.      496.00      20.667     5.65822E-02
1

 HEADS AT RIVER CELLS ARE BELOW THE BOTTOM OF THE RIVER BED AT THE CELLS LISTED
 BELOW.  THESE CONDITIONS DIMINISH THE IMPACT OF THE OBSERVATION ON ESTIMATES OF
 ALL PARAMETERS EXCEPT THOSE THAT CONTROL THE HYDRAULIC CONDUCTIVITY OF THE
 RIVER BED.  (SEE TEXT FOR MORE INFORMATION).

 OBS#    434, ID no_rivf1    , TIME STEP     2
    LAYER   ROW  COLUMN
      1     63     51
      1     63     51
      1     63     50
      1     63     49
      1     63     48
      1     63     47
      1     63     46
      1     63     45
      1     63     44
      1     63     43
      1     62     43
      1     62     42
      1     62     41
      1     62     40
      1     62     39
      1     61     39
      1     61     38
      1     61     37
      1     60     37
      1     60     36
      1     60     35
      1     59     35
      1     59     34
      1     58     34
      1     58     33
      1     57     33
      1     57     32
      1     56     32
      1     55     32
      1     54     32
      1     53     32
      1     52     32
      1     51     32
      1     51     31
      1     50     31
      1     50     30
      1     49     30
      1     48     30
      1     48     29
      1     47     29
      1     46     29
      1     46     28
      1     45     28
      1     44     28
      1     44     27
      1     43     27
      1     42     27
      1     42     26
      1     41     26
      1     41     27
      1     41     26
      1     40     26
      1     40     25
      1     39     25
      1     38     25
      1     38     24
      1     37     24
      1     37     23
      1     36     23
      1     36     22
      1     35     22
      1     35     21
      1     35     20
      1     35     19
      1     34     19
      1     34     18
      1     33     18
      1     33     17
      1     32     17
      1     32     16
      1     32     15
      1     31     15
      1     31     14
      1     30     14
      1     30     13
      1     29     13
      1     29     12
      1     29     11
      1     28     11
      1     28     10
      1     28      9
      1     28      8
      1     28      7
      1     27      7
      1     27      6
      1     26      6
     86 OF THE     86 CELLS USED TO SIMULATE THE GAIN OR LOSS ARE
                      AFFECTED.

 OBS#    470, ID no_rivf37   , TIME STEP     2
    LAYER   ROW  COLUMN
      1     63     51
      1     63     51
      1     63     51
      1     62     51
      1     61     51
      1     61     50
      1     61     49
      1     60     49
      1     59     49
      1     59     48
      1     58     48
      1     58     47
      1     59     47
      1     58     47
      1     58     46
      1     57     46
      1     57     45
      1     57     44
      1     56     44
      1     55     44
      1     55     43
      1     54     43
      1     53     43
      1     53     42
      1     52     42
      1     52     41
      1     52     40
      1     51     40
      1     51     39
      1     51     38
      1     50     38
      1     49     38
      1     49     37
      1     48     37
      1     47     37
      1     47     36
      1     46     36
      1     45     36
      1     45     35
      1     45     34
      1     44     34
      1     44     33
      1     43     33
      1     43     32
      1     43     31
      1     42     31
      1     42     30
      1     41     30
      1     40     30
      1     40     29
      1     39     29
      1     38     29
      1     38     28
      1     37     28
      1     36     28
      1     36     27
      1     35     27
      1     34     27
      1     34     26
      1     33     26
      1     32     26
      1     32     25
      1     31     25
      1     30     25
      1     30     24
      1     29     24
      1     28     24
      1     27     24
      1     26     24
      1     25     24
      1     25     23
      1     24     23
      1     23     23
      1     22     23
      1     22     22
      1     21     22
      1     21     21
      1     20     21
      1     19     21
      1     18     21
      1     18     20
      1     17     20
      1     16     20
      1     16     19
      1     15     19
      1     15     18
      1     14     18
      1     13     18
      1     12     18
      1     11     18
      1     10     18
      1      9     18
      1      8     18
     93 OF THE     93 CELLS USED TO SIMULATE THE GAIN OR LOSS ARE
                      AFFECTED.

 OBS#    506, ID no_rivf73   , TIME STEP     2
    LAYER   ROW  COLUMN
      1     62     59
      1     62     58
      1     62     57
      1     63     57
      1     63     56
      1     63     55
      1     63     54
      1     63     53
      1     63     52
      1     63     51
     10 OF THE     10 CELLS USED TO SIMULATE THE GAIN OR LOSS ARE
                      AFFECTED.
 
 SOLVING FOR HEAD 

 CELL CONVERSIONS FOR ITER.=  2  LAYER=  1  STEP=  3  PERIOD=   1   (ROW,COL)
    DRY( 55, 65)   

 OUTPUT CONTROL FOR STRESS PERIOD    1   TIME STEP   3
    PRINT BUDGET
    SAVE HEAD FOR ALL LAYERS
    SAVE BUDGET
 UBDSV1 SAVING "         STORAGE" ON UNIT 740 AT TIME STEP  3, STRESS PERIOD   1
 UBDSV2 SAVING "   CONSTANT HEAD" ON UNIT 740 AT TIME STEP  3, STRESS PERIOD   1
 UBDSV1 SAVING "FLOW RIGHT FACE " ON UNIT 740 AT TIME STEP  3, STRESS PERIOD   1
 UBDSV1 SAVING "FLOW FRONT FACE " ON UNIT 740 AT TIME STEP  3, STRESS PERIOD   1
 UBDSV4 SAVING "           WELLS" ON UNIT 740 AT TIME STEP  3, STRESS PERIOD   1
 UBDSV4 SAVING "   RIVER LEAKAGE" ON UNIT 740 AT TIME STEP  3, STRESS PERIOD   1
 UBDSV3 SAVING "        RECHARGE" ON UNIT 740 AT TIME STEP  3, STRESS PERIOD   1

 SAVING SATURATED THICKNESS AND FLOW TERMS ON UNIT  333 FOR MT3DMS
 BY THE LINK-MT3DMS PACKAGE V6.3 AT TIME STEP    3, STRESS PERIOD    1


 HEAD WILL BE SAVED ON UNIT  730 AT END OF TIME STEP   3, STRESS PERIOD    1
1
  VOLUMETRIC BUDGET FOR ENTIRE MODEL AT END OF TIME STEP  3 IN STRESS PERIOD   1
  ------------------------------------------------------------------------------

     CUMULATIVE VOLUMES      L**3       RATES FOR THIS TIME STEP      L**3/T
     ------------------                 ------------------------

           IN:                                      IN:
           ---                                      ---
             STORAGE =    12429400.0000               STORAGE =      368458.5000
       CONSTANT HEAD =           0.0000         CONSTANT HEAD =           0.0000
               WELLS =     1055036.5000                 WELLS =       34033.4375
       RIVER LEAKAGE =    56965400.0000         RIVER LEAKAGE =     1837593.5000
            RECHARGE =           0.0000              RECHARGE =           0.0000

            TOTAL IN =    70449840.0000              TOTAL IN =     2240085.5000

          OUT:                                     OUT:
          ----                                     ----
             STORAGE =    69714528.0000               STORAGE =     2217042.0000
       CONSTANT HEAD =           0.0000         CONSTANT HEAD =           0.0000
               WELLS =      735578.0000                 WELLS =       23054.3418
       RIVER LEAKAGE =           0.0000         RIVER LEAKAGE =           0.0000
            RECHARGE =           0.0000              RECHARGE =           0.0000

           TOTAL OUT =    70450104.0000             TOTAL OUT =     2240096.2500

            IN - OUT =        -264.0000              IN - OUT =         -10.7500

 PERCENT DISCREPANCY =           0.00     PERCENT DISCREPANCY =           0.00






          TIME SUMMARY AT END OF TIME STEP   3 IN STRESS PERIOD    1
                    SECONDS     MINUTES      HOURS       DAYS        YEARS
                    -----------------------------------------------------------
   TIME STEP LENGTH 8.92800E+05  14880.      248.00      10.333     2.82911E-02
 STRESS PERIOD TIME 2.67840E+06  44640.      744.00      31.000     8.48734E-02
         TOTAL TIME 2.67840E+06  44640.      744.00      31.000     8.48734E-02
1

 HEADS AT RIVER CELLS ARE BELOW THE BOTTOM OF THE RIVER BED AT THE CELLS LISTED
 BELOW.  THESE CONDITIONS DIMINISH THE IMPACT OF THE OBSERVATION ON ESTIMATES OF
 ALL PARAMETERS EXCEPT THOSE THAT CONTROL THE HYDRAULIC CONDUCTIVITY OF THE
 RIVER BED.  (SEE TEXT FOR MORE INFORMATION).

 OBS#    434, ID no_rivf1    , TIME STEP     3
    LAYER   ROW  COLUMN
      1     63     51
      1     63     51
      1     63     50
      1     63     49
      1     63     48
      1     63     47
      1     63     46
      1     63     45
      1     63     44
      1     63     43
      1     62     43
      1     62     42
      1     62     41
      1     62     40
      1     62     39
      1     61     39
      1     61     38
      1     61     37
      1     60     37
      1     60     36
      1     60     35
      1     59     35
      1     59     34
      1     58     34
      1     58     33
      1     57     33
      1     57     32
      1     56     32
      1     55     32
      1     54     32
      1     53     32
      1     52     32
      1     51     32
      1     51     31
      1     50     31
      1     50     30
      1     49     30
      1     48     30
      1     48     29
      1     47     29
      1     46     29
      1     46     28
      1     45     28
      1     44     28
      1     44     27
      1     43     27
      1     42     27
      1     42     26
      1     41     26
      1     41     27
      1     41     26
      1     40     26
      1     40     25
      1     39     25
      1     38     25
      1     38     24
      1     37     24
      1     37     23
      1     36     23
      1     36     22
      1     35     22
      1     35     21
      1     35     20
      1     35     19
      1     34     19
      1     34     18
      1     33     18
      1     33     17
      1     32     17
      1     32     16
      1     32     15
      1     31     15
      1     31     14
      1     30     14
      1     30     13
      1     29     13
      1     29     12
      1     29     11
      1     28     11
      1     28     10
      1     28      9
      1     28      8
      1     28      7
      1     27      7
      1     27      6
      1     26      6
     86 OF THE     86 CELLS USED TO SIMULATE THE GAIN OR LOSS ARE
                      AFFECTED.

 OBS#    435, ID no_rivf2    , TIME STEP     3
    LAYER   ROW  COLUMN
      1     63     51
      1     63     51
      1     63     50
      1     63     49
      1     63     48
      1     63     47
      1     63     46
      1     63     45
      1     63     44
      1     63     43
      1     62     43
      1     62     42
      1     62     41
      1     62     40
      1     62     39
      1     61     39
      1     61     38
      1     61     37
      1     60     37
      1     60     36
      1     60     35
      1     59     35
      1     59     34
      1     58     34
      1     58     33
      1     57     33
      1     57     32
      1     56     32
      1     55     32
      1     54     32
      1     53     32
      1     52     32
      1     51     32
      1     51     31
      1     50     31
      1     50     30
      1     49     30
      1     48     30
      1     48     29
      1     47     29
      1     46     29
      1     46     28
      1     45     28
      1     44     28
      1     44     27
      1     43     27
      1     42     27
      1     42     26
      1     41     26
      1     41     27
      1     41     26
      1     40     26
      1     40     25
      1     39     25
      1     38     25
      1     38     24
      1     37     24
      1     37     23
      1     36     23
      1     36     22
      1     35     22
      1     35     21
      1     35     20
      1     35     19
      1     34     19
      1     34     18
      1     33     18
      1     33     17
      1     32     17
      1     32     16
      1     32     15
      1     31     15
      1     31     14
      1     30     14
      1     30     13
      1     29     13
      1     29     12
      1     29     11
      1     28     11
      1     28     10
      1     28      9
      1     28      8
      1     28      7
      1     27      7
      1     27      6
      1     26      6
     86 OF THE     86 CELLS USED TO SIMULATE THE GAIN OR LOSS ARE
                      AFFECTED.

 OBS#    436, ID no_rivf3    , TIME STEP     3
    LAYER   ROW  COLUMN
      1     63     51
      1     63     51
      1     63     50
      1     63     49
      1     63     48
      1     63     47
      1     63     46
      1     63     45
      1     63     44
      1     63     43
      1     62     43
      1     62     42
      1     62     41
      1     62     40
      1     62     39
      1     61     39
      1     61     38
      1     61     37
      1     60     37
      1     60     36
      1     60     35
      1     59     35
      1     59     34
      1     58     34
      1     58     33
      1     57     33
      1     57     32
      1     56     32
      1     55     32
      1     54     32
      1     53     32
      1     52     32
      1     51     32
      1     51     31
      1     50     31
      1     50     30
      1     49     30
      1     48     30
      1     48     29
      1     47     29
      1     46     29
      1     46     28
      1     45     28
      1     44     28
      1     44     27
      1     43     27
      1     42     27
      1     42     26
      1     41     26
      1     41     27
      1     41     26
      1     40     26
      1     40     25
      1     39     25
      1     38     25
      1     38     24
      1     37     24
      1     37     23
      1     36     23
      1     36     22
      1     35     22
      1     35     21
      1     35     20
      1     35     19
      1     34     19
      1     34     18
      1     33     18
      1     33     17
      1     32     17
      1     32     16
      1     32     15
      1     31     15
      1     31     14
      1     30     14
      1     30     13
      1     29     13
      1     29     12
      1     29     11
      1     28     11
      1     28     10
      1     28      9
      1     28      8
      1     28      7
      1     27      7
      1     27      6
      1     26      6
     86 OF THE     86 CELLS USED TO SIMULATE THE GAIN OR LOSS ARE
                      AFFECTED.

 OBS#    470, ID no_rivf37   , TIME STEP     3
    LAYER   ROW  COLUMN
      1     63     51
      1     63     51
      1     63     51
      1     62     51
      1     61     51
      1     61     50
      1     61     49
      1     60     49
      1     59     49
      1     59     48
      1     58     48
      1     58     47
      1     59     47
      1     58     47
      1     58     46
      1     57     46
      1     57     45
      1     57     44
      1     56     44
      1     55     44
      1     55     43
      1     54     43
      1     53     43
      1     53     42
      1     52     42
      1     52     41
      1     52     40
      1     51     40
      1     51     39
      1     51     38
      1     50     38
      1     49     38
      1     49     37
      1     48     37
      1     47     37
      1     47     36
      1     46     36
      1     45     36
      1     45     35
      1     45     34
      1     44     34
      1     44     33
      1     43     33
      1     43     32
      1     43     31
      1     42     31
      1     42     30
      1     41     30
      1     40     30
      1     40     29
      1     39     29
      1     38     29
      1     38     28
      1     37     28
      1     36     28
      1     36     27
      1     35     27
      1     34     27
      1     34     26
      1     33     26
      1     32     26
      1     32     25
      1     31     25
      1     30     25
      1     30     24
      1     29     24
      1     28     24
      1     27     24
      1     26     24
      1     25     24
      1     25     23
      1     24     23
      1     23     23
      1     22     23
      1     22     22
      1     21     22
      1     21     21
      1     20     21
      1     19     21
      1     18     21
      1     18     20
      1     17     20
      1     16     20
      1     16     19
      1     15     19
      1     15     18
      1     14     18
      1     13     18
      1     12     18
      1     11     18
      1     10     18
      1      9     18
      1      8     18
     93 OF THE     93 CELLS USED TO SIMULATE THE GAIN OR LOSS ARE
                      AFFECTED.

 OBS#    471, ID no_rivf38   , TIME STEP     3
    LAYER   ROW  COLUMN
      1     63     51
      1     63     51
      1     63     51
      1     62     51
      1     61     51
      1     61     50
      1     61     49
      1     60     49
      1     59     49
      1     59     48
      1     58     48
      1     58     47
      1     59     47
      1     58     47
      1     58     46
      1     57     46
      1     57     45
      1     57     44
      1     56     44
      1     55     44
      1     55     43
      1     54     43
      1     53     43
      1     53     42
      1     52     42
      1     52     41
      1     52     40
      1     51     40
      1     51     39
      1     51     38
      1     50     38
      1     49     38
      1     49     37
      1     48     37
      1     47     37
      1     47     36
      1     46     36
      1     45     36
      1     45     35
      1     45     34
      1     44     34
      1     44     33
      1     43     33
      1     43     32
      1     43     31
      1     42     31
      1     42     30
      1     41     30
      1     40     30
      1     40     29
      1     39     29
      1     38     29
      1     38     28
      1     37     28
      1     36     28
      1     36     27
      1     35     27
      1     34     27
      1     34     26
      1     33     26
      1     32     26
      1     32     25
      1     31     25
      1     30     25
      1     30     24
      1     29     24
      1     28     24
      1     27     24
      1     26     24
      1     25     24
      1     25     23
      1     24     23
      1     23     23
      1     22     23
      1     22     22
      1     21     22
      1     21     21
      1     20     21
      1     19     21
      1     18     21
      1     18     20
      1     17     20
      1     16     20
      1     16     19
      1     15     19
      1     15     18
      1     14     18
      1     13     18
      1     12     18
      1     11     18
      1     10     18
      1      9     18
      1      8     18
     93 OF THE     93 CELLS USED TO SIMULATE THE GAIN OR LOSS ARE
                      AFFECTED.

 OBS#    472, ID no_rivf39   , TIME STEP     3
    LAYER   ROW  COLUMN
      1     63     51
      1     63     51
      1     63     51
      1     62     51
      1     61     51
      1     61     50
      1     61     49
      1     60     49
      1     59     49
      1     59     48
      1     58     48
      1     58     47
      1     59     47
      1     58     47
      1     58     46
      1     57     46
      1     57     45
      1     57     44
      1     56     44
      1     55     44
      1     55     43
      1     54     43
      1     53     43
      1     53     42
      1     52     42
      1     52     41
      1     52     40
      1     51     40
      1     51     39
      1     51     38
      1     50     38
      1     49     38
      1     49     37
      1     48     37
      1     47     37
      1     47     36
      1     46     36
      1     45     36
      1     45     35
      1     45     34
      1     44     34
      1     44     33
      1     43     33
      1     43     32
      1     43     31
      1     42     31
      1     42     30
      1     41     30
      1     40     30
      1     40     29
      1     39     29
      1     38     29
      1     38     28
      1     37     28
      1     36     28
      1     36     27
      1     35     27
      1     34     27
      1     34     26
      1     33     26
      1     32     26
      1     32     25
      1     31     25
      1     30     25
      1     30     24
      1     29     24
      1     28     24
      1     27     24
      1     26     24
      1     25     24
      1     25     23
      1     24     23
      1     23     23
      1     22     23
      1     22     22
      1     21     22
      1     21     21
      1     20     21
      1     19     21
      1     18     21
      1     18     20
      1     17     20
      1     16     20
      1     16     19
      1     15     19
      1     15     18
      1     14     18
      1     13     18
      1     12     18
      1     11     18
      1     10     18
      1      9     18
      1      8     18
     93 OF THE     93 CELLS USED TO SIMULATE THE GAIN OR LOSS ARE
                      AFFECTED.

 OBS#    506, ID no_rivf73   , TIME STEP     3
    LAYER   ROW  COLUMN
      1     62     59
      1     62     58
      1     62     57
      1     63     57
      1     63     56
      1     63     55
      1     63     54
      1     63     53
      1     63     52
      1     63     51
     10 OF THE     10 CELLS USED TO SIMULATE THE GAIN OR LOSS ARE
                      AFFECTED.

 OBS#    507, ID no_rivf74   , TIME STEP     3
    LAYER   ROW  COLUMN
      1     62     59
      1     62     58
      1     62     57
      1     63     57
      1     63     56
      1     63     55
      1     63     54
      1     63     53
      1     63     52
      1     63     51
     10 OF THE     10 CELLS USED TO SIMULATE THE GAIN OR LOSS ARE
                      AFFECTED.

 OBS#    508, ID no_rivf75   , TIME STEP     3
    LAYER   ROW  COLUMN
      1     62     59
      1     62     58
      1     62     57
      1     63     57
      1     63     56
      1     63     55
      1     63     54
      1     63     53
      1     63     52
      1     63     51
     10 OF THE     10 CELLS USED TO SIMULATE THE GAIN OR LOSS ARE
                      AFFECTED.
1
                            STRESS PERIOD NO.    2, LENGTH =   29.00000    
                            -----------------------------------------------

                              NUMBER OF TIME STEPS =     3

                               MULTIPLIER FOR DELT =     1.000

                            INITIAL TIME STEP SIZE =   9.666667    

 REUSING NON-PARAMETER WELLS FROM LAST STRESS PERIOD

     46 WELLS

 REUSING NON-PARAMETER RIVER REACHES FROM LAST STRESS PERIOD

    186 RIVER REACHES



                           RECHARGE
 READING ON UNIT  716 WITH FORMAT: (FREE)              
 
 SOLVING FOR HEAD 

 OUTPUT CONTROL FOR STRESS PERIOD    2   TIME STEP   1
    PRINT BUDGET
    SAVE HEAD FOR ALL LAYERS
    SAVE BUDGET
 UBDSV1 SAVING "         STORAGE" ON UNIT 740 AT TIME STEP  1, STRESS PERIOD   2
 UBDSV2 SAVING "   CONSTANT HEAD" ON UNIT 740 AT TIME STEP  1, STRESS PERIOD   2
 UBDSV1 SAVING "FLOW RIGHT FACE " ON UNIT 740 AT TIME STEP  1, STRESS PERIOD   2
 UBDSV1 SAVING "FLOW FRONT FACE " ON UNIT 740 AT TIME STEP  1, STRESS PERIOD   2
 UBDSV4 SAVING "           WELLS" ON UNIT 740 AT TIME STEP  1, STRESS PERIOD   2
 UBDSV4 SAVING "   RIVER LEAKAGE" ON UNIT 740 AT TIME STEP  1, STRESS PERIOD   2
 UBDSV3 SAVING "        RECHARGE" ON UNIT 740 AT TIME STEP  1, STRESS PERIOD   2

 SAVING SATURATED THICKNESS AND FLOW TERMS ON UNIT  333 FOR MT3DMS
 BY THE LINK-MT3DMS PACKAGE V6.3 AT TIME STEP    1, STRESS PERIOD    2


 HEAD WILL BE SAVED ON UNIT  730 AT END OF TIME STEP   1, STRESS PERIOD    2
1
  VOLUMETRIC BUDGET FOR ENTIRE MODEL AT END OF TIME STEP  1 IN STRESS PERIOD   2
  ------------------------------------------------------------------------------

     CUMULATIVE VOLUMES      L**3       RATES FOR THIS TIME STEP      L**3/T
     ------------------                 ------------------------

           IN:                                      IN:
           ---                                      ---
             STORAGE =    15527173.0000               STORAGE =      320459.2500
       CONSTANT HEAD =           0.0000         CONSTANT HEAD =           0.0000
               WELLS =     1384026.3750                 WELLS =       34033.4375
       RIVER LEAKAGE =    74728800.0000         RIVER LEAKAGE =     1837593.5000
            RECHARGE =      924242.5625              RECHARGE =       95611.2969

            TOTAL IN =    92564240.0000              TOTAL IN =     2287697.5000

          OUT:                                     OUT:
          ----                                     ----
             STORAGE =    91606528.0000               STORAGE =     2264689.5000
       CONSTANT HEAD =           0.0000         CONSTANT HEAD =           0.0000
               WELLS =      958436.6250                 WELLS =       23054.3418
       RIVER LEAKAGE =           0.0000         RIVER LEAKAGE =           0.0000
            RECHARGE =           0.0000              RECHARGE =           0.0000

           TOTAL OUT =    92564968.0000             TOTAL OUT =     2287743.7500

            IN - OUT =        -728.0000              IN - OUT =         -46.2500

 PERCENT DISCREPANCY =           0.00     PERCENT DISCREPANCY =           0.00






          TIME SUMMARY AT END OF TIME STEP   1 IN STRESS PERIOD    2
                    SECONDS     MINUTES      HOURS       DAYS        YEARS
                    -----------------------------------------------------------
   TIME STEP LENGTH 8.35200E+05  13920.      232.00      9.6667     2.64659E-02
 STRESS PERIOD TIME 8.35200E+05  13920.      232.00      9.6667     2.64659E-02
         TOTAL TIME 3.51360E+06  58560.      976.00      40.667     0.11134    
1

 HEADS AT RIVER CELLS ARE BELOW THE BOTTOM OF THE RIVER BED AT THE CELLS LISTED
 BELOW.  THESE CONDITIONS DIMINISH THE IMPACT OF THE OBSERVATION ON ESTIMATES OF
 ALL PARAMETERS EXCEPT THOSE THAT CONTROL THE HYDRAULIC CONDUCTIVITY OF THE
 RIVER BED.  (SEE TEXT FOR MORE INFORMATION).

 OBS#    436, ID no_rivf3    , TIME STEP     4
    LAYER   ROW  COLUMN
      1     63     51
      1     63     51
      1     63     50
      1     63     49
      1     63     48
      1     63     47
      1     63     46
      1     63     45
      1     63     44
      1     63     43
      1     62     43
      1     62     42
      1     62     41
      1     62     40
      1     62     39
      1     61     39
      1     61     38
      1     61     37
      1     60     37
      1     60     36
      1     60     35
      1     59     35
      1     59     34
      1     58     34
      1     58     33
      1     57     33
      1     57     32
      1     56     32
      1     55     32
      1     54     32
      1     53     32
      1     52     32
      1     51     32
      1     51     31
      1     50     31
      1     50     30
      1     49     30
      1     48     30
      1     48     29
      1     47     29
      1     46     29
      1     46     28
      1     45     28
      1     44     28
      1     44     27
      1     43     27
      1     42     27
      1     42     26
      1     41     26
      1     41     27
      1     41     26
      1     40     26
      1     40     25
      1     39     25
      1     38     25
      1     38     24
      1     37     24
      1     37     23
      1     36     23
      1     36     22
      1     35     22
      1     35     21
      1     35     20
      1     35     19
      1     34     19
      1     34     18
      1     33     18
      1     33     17
      1     32     17
      1     32     16
      1     32     15
      1     31     15
      1     31     14
      1     30     14
      1     30     13
      1     29     13
      1     29     12
      1     29     11
      1     28     11
      1     28     10
      1     28      9
      1     28      8
      1     28      7
      1     27      7
      1     27      6
      1     26      6
     86 OF THE     86 CELLS USED TO SIMULATE THE GAIN OR LOSS ARE
                      AFFECTED.

 OBS#    437, ID no_rivf4    , TIME STEP     4
    LAYER   ROW  COLUMN
      1     63     51
      1     63     51
      1     63     50
      1     63     49
      1     63     48
      1     63     47
      1     63     46
      1     63     45
      1     63     44
      1     63     43
      1     62     43
      1     62     42
      1     62     41
      1     62     40
      1     62     39
      1     61     39
      1     61     38
      1     61     37
      1     60     37
      1     60     36
      1     60     35
      1     59     35
      1     59     34
      1     58     34
      1     58     33
      1     57     33
      1     57     32
      1     56     32
      1     55     32
      1     54     32
      1     53     32
      1     52     32
      1     51     32
      1     51     31
      1     50     31
      1     50     30
      1     49     30
      1     48     30
      1     48     29
      1     47     29
      1     46     29
      1     46     28
      1     45     28
      1     44     28
      1     44     27
      1     43     27
      1     42     27
      1     42     26
      1     41     26
      1     41     27
      1     41     26
      1     40     26
      1     40     25
      1     39     25
      1     38     25
      1     38     24
      1     37     24
      1     37     23
      1     36     23
      1     36     22
      1     35     22
      1     35     21
      1     35     20
      1     35     19
      1     34     19
      1     34     18
      1     33     18
      1     33     17
      1     32     17
      1     32     16
      1     32     15
      1     31     15
      1     31     14
      1     30     14
      1     30     13
      1     29     13
      1     29     12
      1     29     11
      1     28     11
      1     28     10
      1     28      9
      1     28      8
      1     28      7
      1     27      7
      1     27      6
      1     26      6
     86 OF THE     86 CELLS USED TO SIMULATE THE GAIN OR LOSS ARE
                      AFFECTED.

 OBS#    472, ID no_rivf39   , TIME STEP     4
    LAYER   ROW  COLUMN
      1     63     51
      1     63     51
      1     63     51
      1     62     51
      1     61     51
      1     61     50
      1     61     49
      1     60     49
      1     59     49
      1     59     48
      1     58     48
      1     58     47
      1     59     47
      1     58     47
      1     58     46
      1     57     46
      1     57     45
      1     57     44
      1     56     44
      1     55     44
      1     55     43
      1     54     43
      1     53     43
      1     53     42
      1     52     42
      1     52     41
      1     52     40
      1     51     40
      1     51     39
      1     51     38
      1     50     38
      1     49     38
      1     49     37
      1     48     37
      1     47     37
      1     47     36
      1     46     36
      1     45     36
      1     45     35
      1     45     34
      1     44     34
      1     44     33
      1     43     33
      1     43     32
      1     43     31
      1     42     31
      1     42     30
      1     41     30
      1     40     30
      1     40     29
      1     39     29
      1     38     29
      1     38     28
      1     37     28
      1     36     28
      1     36     27
      1     35     27
      1     34     27
      1     34     26
      1     33     26
      1     32     26
      1     32     25
      1     31     25
      1     30     25
      1     30     24
      1     29     24
      1     28     24
      1     27     24
      1     26     24
      1     25     24
      1     25     23
      1     24     23
      1     23     23
      1     22     23
      1     22     22
      1     21     22
      1     21     21
      1     20     21
      1     19     21
      1     18     21
      1     18     20
      1     17     20
      1     16     20
      1     16     19
      1     15     19
      1     15     18
      1     14     18
      1     13     18
      1     12     18
      1     11     18
      1     10     18
      1      9     18
      1      8     18
     93 OF THE     93 CELLS USED TO SIMULATE THE GAIN OR LOSS ARE
                      AFFECTED.

 OBS#    473, ID no_rivf40   , TIME STEP     4
    LAYER   ROW  COLUMN
      1     63     51
      1     63     51
      1     63     51
      1     62     51
      1     61     51
      1     61     50
      1     61     49
      1     60     49
      1     59     49
      1     59     48
      1     58     48
      1     58     47
      1     59     47
      1     58     47
      1     58     46
      1     57     46
      1     57     45
      1     57     44
      1     56     44
      1     55     44
      1     55     43
      1     54     43
      1     53     43
      1     53     42
      1     52     42
      1     52     41
      1     52     40
      1     51     40
      1     51     39
      1     51     38
      1     50     38
      1     49     38
      1     49     37
      1     48     37
      1     47     37
      1     47     36
      1     46     36
      1     45     36
      1     45     35
      1     45     34
      1     44     34
      1     44     33
      1     43     33
      1     43     32
      1     43     31
      1     42     31
      1     42     30
      1     41     30
      1     40     30
      1     40     29
      1     39     29
      1     38     29
      1     38     28
      1     37     28
      1     36     28
      1     36     27
      1     35     27
      1     34     27
      1     34     26
      1     33     26
      1     32     26
      1     32     25
      1     31     25
      1     30     25
      1     30     24
      1     29     24
      1     28     24
      1     27     24
      1     26     24
      1     25     24
      1     25     23
      1     24     23
      1     23     23
      1     22     23
      1     22     22
      1     21     22
      1     21     21
      1     20     21
      1     19     21
      1     18     21
      1     18     20
      1     17     20
      1     16     20
      1     16     19
      1     15     19
      1     15     18
      1     14     18
      1     13     18
      1     12     18
      1     11     18
      1     10     18
      1      9     18
      1      8     18
     93 OF THE     93 CELLS USED TO SIMULATE THE GAIN OR LOSS ARE
                      AFFECTED.

 OBS#    508, ID no_rivf75   , TIME STEP     4
    LAYER   ROW  COLUMN
      1     62     59
      1     62     58
      1     62     57
      1     63     57
      1     63     56
      1     63     55
      1     63     54
      1     63     53
      1     63     52
      1     63     51
     10 OF THE     10 CELLS USED TO SIMULATE THE GAIN OR LOSS ARE
                      AFFECTED.

 OBS#    509, ID no_rivf76   , TIME STEP     4
    LAYER   ROW  COLUMN
      1     62     59
      1     62     58
      1     62     57
      1     63     57
      1     63     56
      1     63     55
      1     63     54
      1     63     53
      1     63     52
      1     63     51
     10 OF THE     10 CELLS USED TO SIMULATE THE GAIN OR LOSS ARE
                      AFFECTED.
 
 SOLVING FOR HEAD 

 OUTPUT CONTROL FOR STRESS PERIOD    2   TIME STEP   2
    PRINT BUDGET
    SAVE HEAD FOR ALL LAYERS
    SAVE BUDGET
 UBDSV1 SAVING "         STORAGE" ON UNIT 740 AT TIME STEP  2, STRESS PERIOD   2
 UBDSV2 SAVING "   CONSTANT HEAD" ON UNIT 740 AT TIME STEP  2, STRESS PERIOD   2
 UBDSV1 SAVING "FLOW RIGHT FACE " ON UNIT 740 AT TIME STEP  2, STRESS PERIOD   2
 UBDSV1 SAVING "FLOW FRONT FACE " ON UNIT 740 AT TIME STEP  2, STRESS PERIOD   2
 UBDSV4 SAVING "           WELLS" ON UNIT 740 AT TIME STEP  2, STRESS PERIOD   2
 UBDSV4 SAVING "   RIVER LEAKAGE" ON UNIT 740 AT TIME STEP  2, STRESS PERIOD   2
 UBDSV3 SAVING "        RECHARGE" ON UNIT 740 AT TIME STEP  2, STRESS PERIOD   2

 SAVING SATURATED THICKNESS AND FLOW TERMS ON UNIT  333 FOR MT3DMS
 BY THE LINK-MT3DMS PACKAGE V6.3 AT TIME STEP    2, STRESS PERIOD    2


 HEAD WILL BE SAVED ON UNIT  730 AT END OF TIME STEP   2, STRESS PERIOD    2
1
  VOLUMETRIC BUDGET FOR ENTIRE MODEL AT END OF TIME STEP  2 IN STRESS PERIOD   2
  ------------------------------------------------------------------------------

     CUMULATIVE VOLUMES      L**3       RATES FOR THIS TIME STEP      L**3/T
     ------------------                 ------------------------

           IN:                                      IN:
           ---                                      ---
             STORAGE =    18455228.0000               STORAGE =      302902.2500
       CONSTANT HEAD =           0.0000         CONSTANT HEAD =           0.0000
               WELLS =     1713016.2500                 WELLS =       34033.4375
       RIVER LEAKAGE =    92492208.0000         RIVER LEAKAGE =     1837593.5000
            RECHARGE =     1848485.1250              RECHARGE =       95611.2969

            TOTAL IN =   114508936.0000              TOTAL IN =     2270140.5000

          OUT:                                     OUT:
[...]
    406 no_hed406       0.00       159.      -159.       0.00       0.00    
    407 no_hed407       0.00       159.      -159.       0.00       0.00    
    408 no_hed408       0.00       159.      -159.       0.00       0.00    
    409 no_hed409       0.00       159.      -159.       0.00       0.00    
    410 no_hed410       0.00       159.      -159.       0.00       0.00    
    411 no_hed411       0.00       159.      -159.       0.00       0.00    
    412 no_hed412       0.00       159.      -159.       0.00       0.00    
    413 no_hed413       0.00       159.      -159.       0.00       0.00    
    414 no_hed414       0.00       159.      -159.       0.00       0.00    
    415 no_hed415       0.00       159.      -159.       0.00       0.00    
    416 no_hed416       0.00       159.      -159.       0.00       0.00    
    417 no_hed417       0.00       159.      -159.       0.00       0.00    
    418 no_hed418       0.00       159.      -159.       0.00       0.00    
    419 no_hed419       0.00       159.      -159.       0.00       0.00    
    420 no_hed420       0.00       159.      -159.       0.00       0.00    
    421 no_hed421       0.00       159.      -159.       0.00       0.00    
    422 no_hed422       0.00       159.      -159.       0.00       0.00    
    423 no_hed423       0.00       159.      -159.       0.00       0.00    
    424 no_hed424       0.00       159.      -159.       0.00       0.00    
    425 no_hed425       0.00       159.      -159.       0.00       0.00    
    426 no_hed426       0.00       159.      -159.       0.00       0.00    
    427 no_hed427       0.00       159.      -159.       0.00       0.00    
    428 no_hed428       0.00       159.      -159.       0.00       0.00    
    429 no_hed429       0.00       159.      -159.       0.00       0.00    
    430 no_hed430       0.00       159.      -159.       0.00       0.00    
    431 no_hed431       0.00       159.      -159.       0.00       0.00    
    432 no_hed432       0.00       159.      -159.       0.00       0.00    

 * THE OBSERVATION (AND CORRESPONDING SIMULATED EQUIVALENT) IS HEAD OR TEMPORAL
   CHANGE IN HEAD, AS SPECIFIED IN THE "HOB" INPUT FILE.  NEGATIVE TEMPORAL
   CHANGES INDICATE DRAWDOWN.

 STATISTICS FOR HEAD RESIDUALS :
 MAXIMUM WEIGHTED RESIDUAL  : 0.880     OBS#    348
 MINIMUM WEIGHTED RESIDUAL  :-0.516     OBS#     12
 AVERAGE WEIGHTED RESIDUAL  : 0.257E-02
 # RESIDUALS >= 0. :    365
 # RESIDUALS < 0.  :     67
 NUMBER OF RUNS  :    7  IN  432 OBSERVATIONS

 SUM OF SQUARED WEIGHTED RESIDUALS (HEADS ONLY)   3.2450    

 DATA FOR FLOWS REPRESENTED USING THE RIVER PACKAGE

        OBSERVATION      MEAS.      CALC.                          WEIGHTED
   OBS#    NAME          FLOW       FLOW     RESIDUAL  WEIGHT**.5  RESIDUAL

    433 no_rivf0        1.00      0.108E+07 -0.108E+07  0.100E-17 -0.108E-11
    434 no_rivf1        1.00      0.108E+07 -0.108E+07  0.100E-17 -0.108E-11
    435 no_rivf2        1.00      0.108E+07 -0.108E+07  0.100E-17 -0.108E-11
    436 no_rivf3        1.00      0.108E+07 -0.108E+07  0.100E-17 -0.108E-11
    437 no_rivf4        1.00      0.108E+07 -0.108E+07  0.100E-17 -0.108E-11
    438 no_rivf5        1.00      0.108E+07 -0.108E+07  0.100E-17 -0.108E-11
    439 no_rivf6        1.00      0.108E+07 -0.108E+07  0.100E-17 -0.108E-11
    440 no_rivf7        1.00      0.108E+07 -0.108E+07  0.100E-17 -0.108E-11
    441 no_rivf8        1.00      0.108E+07 -0.108E+07  0.100E-17 -0.108E-11
    442 no_rivf9        1.00      0.108E+07 -0.108E+07  0.100E-17 -0.108E-11
    443 no_rivf10       1.00      0.107E+07 -0.107E+07  0.100E-17 -0.107E-11
    444 no_rivf11       1.00      0.107E+07 -0.107E+07  0.100E-17 -0.107E-11
    445 no_rivf12       1.00      0.107E+07 -0.107E+07  0.100E-17 -0.107E-11
    446 no_rivf13       1.00      0.107E+07 -0.107E+07  0.100E-17 -0.107E-11
    447 no_rivf14       1.00      0.106E+07 -0.106E+07  0.100E-17 -0.106E-11
    448 no_rivf15       1.00      0.106E+07 -0.106E+07  0.100E-17 -0.106E-11
    449 no_rivf16       1.00      0.106E+07 -0.106E+07  0.100E-17 -0.106E-11
    450 no_rivf17       1.00      0.106E+07 -0.106E+07  0.100E-17 -0.106E-11
    451 no_rivf18       1.00      0.106E+07 -0.106E+07  0.100E-17 -0.106E-11
    452 no_rivf19       1.00      0.105E+07 -0.105E+07  0.100E-17 -0.105E-11
    453 no_rivf20       1.00      0.105E+07 -0.105E+07  0.100E-17 -0.105E-11
    454 no_rivf21       1.00      0.105E+07 -0.105E+07  0.100E-17 -0.105E-11
    455 no_rivf22       1.00      0.104E+07 -0.104E+07  0.100E-17 -0.104E-11
    456 no_rivf23       1.00      0.104E+07 -0.104E+07  0.100E-17 -0.104E-11
    457 no_rivf24       1.00      0.104E+07 -0.104E+07  0.100E-17 -0.104E-11
    458 no_rivf25       1.00      0.104E+07 -0.104E+07  0.100E-17 -0.104E-11
    459 no_rivf26       1.00      0.103E+07 -0.103E+07  0.100E-17 -0.103E-11
    460 no_rivf27       1.00      0.103E+07 -0.103E+07  0.100E-17 -0.103E-11
    461 no_rivf28       1.00      0.103E+07 -0.103E+07  0.100E-17 -0.103E-11
    462 no_rivf29       1.00      0.102E+07 -0.102E+07  0.100E-17 -0.102E-11
    463 no_rivf30       1.00      0.102E+07 -0.102E+07  0.100E-17 -0.102E-11
    464 no_rivf31       1.00      0.102E+07 -0.102E+07  0.100E-17 -0.102E-11
    465 no_rivf32       1.00      0.101E+07 -0.101E+07  0.100E-17 -0.101E-11
    466 no_rivf33       1.00      0.101E+07 -0.101E+07  0.100E-17 -0.101E-11
    467 no_rivf34       1.00      0.101E+07 -0.101E+07  0.100E-17 -0.101E-11
    468 no_rivf35       1.00      0.100E+07 -0.100E+07  0.100E-17 -0.100E-11
    469 no_rivf36       1.00      0.625E+06 -0.625E+06  0.100E-17 -0.625E-12
    470 no_rivf37       1.00      0.625E+06 -0.625E+06  0.100E-17 -0.625E-12
    471 no_rivf38       1.00      0.625E+06 -0.625E+06  0.100E-17 -0.625E-12
    472 no_rivf39       1.00      0.625E+06 -0.625E+06  0.100E-17 -0.625E-12
    473 no_rivf40       1.00      0.625E+06 -0.625E+06  0.100E-17 -0.625E-12
    474 no_rivf41       1.00      0.622E+06 -0.622E+06  0.100E-17 -0.622E-12
    475 no_rivf42       1.00      0.620E+06 -0.620E+06  0.100E-17 -0.620E-12
    476 no_rivf43       1.00      0.619E+06 -0.619E+06  0.100E-17 -0.619E-12
    477 no_rivf44       1.00      0.619E+06 -0.619E+06  0.100E-17 -0.619E-12
    478 no_rivf45       1.00      0.618E+06 -0.618E+06  0.100E-17 -0.618E-12
    479 no_rivf46       1.00      0.617E+06 -0.617E+06  0.100E-17 -0.617E-12
    480 no_rivf47       1.00      0.617E+06 -0.617E+06  0.100E-17 -0.617E-12
    481 no_rivf48       1.00      0.616E+06 -0.616E+06  0.100E-17 -0.616E-12
    482 no_rivf49       1.00      0.616E+06 -0.616E+06  0.100E-17 -0.616E-12
    483 no_rivf50       1.00      0.616E+06 -0.616E+06  0.100E-17 -0.616E-12
    484 no_rivf51       1.00      0.615E+06 -0.615E+06  0.100E-17 -0.615E-12
    485 no_rivf52       1.00      0.615E+06 -0.615E+06  0.100E-17 -0.615E-12
    486 no_rivf53       1.00      0.615E+06 -0.615E+06  0.100E-17 -0.615E-12
    487 no_rivf54       1.00      0.614E+06 -0.614E+06  0.100E-17 -0.614E-12
    488 no_rivf55       1.00      0.614E+06 -0.614E+06  0.100E-17 -0.614E-12
    489 no_rivf56       1.00      0.614E+06 -0.614E+06  0.100E-17 -0.614E-12
    490 no_rivf57       1.00      0.612E+06 -0.612E+06  0.100E-17 -0.612E-12
    491 no_rivf58       1.00      0.611E+06 -0.611E+06  0.100E-17 -0.611E-12
    492 no_rivf59       1.00      0.610E+06 -0.610E+06  0.100E-17 -0.610E-12
    493 no_rivf60       1.00      0.609E+06 -0.609E+06  0.100E-17 -0.609E-12
    494 no_rivf61       1.00      0.609E+06 -0.609E+06  0.100E-17 -0.609E-12
    495 no_rivf62       1.00      0.608E+06 -0.608E+06  0.100E-17 -0.608E-12
    496 no_rivf63       1.00      0.607E+06 -0.607E+06  0.100E-17 -0.607E-12
    497 no_rivf64       1.00      0.606E+06 -0.606E+06  0.100E-17 -0.606E-12
    498 no_rivf65       1.00      0.605E+06 -0.605E+06  0.100E-17 -0.605E-12
    499 no_rivf66       1.00      0.604E+06 -0.604E+06  0.100E-17 -0.604E-12
    500 no_rivf67       1.00      0.604E+06 -0.604E+06  0.100E-17 -0.604E-12
    501 no_rivf68       1.00      0.602E+06 -0.602E+06  0.100E-17 -0.602E-12
    502 no_rivf69       1.00      0.601E+06 -0.601E+06  0.100E-17 -0.601E-12
    503 no_rivf70       1.00      0.599E+06 -0.599E+06  0.100E-17 -0.599E-12
    504 no_rivf71       1.00      0.599E+06 -0.599E+06  0.100E-17 -0.599E-12
    505 no_rivf72       1.00      0.137E+06 -0.137E+06  0.100E-17 -0.137E-12
    506 no_rivf73       1.00      0.137E+06 -0.137E+06  0.100E-17 -0.137E-12
    507 no_rivf74       1.00      0.137E+06 -0.137E+06  0.100E-17 -0.137E-12
    508 no_rivf75       1.00      0.137E+06 -0.137E+06  0.100E-17 -0.137E-12
    509 no_rivf76       1.00      0.137E+06 -0.137E+06  0.100E-17 -0.137E-12
    510 no_rivf77       1.00      0.137E+06 -0.137E+06  0.100E-17 -0.137E-12
    511 no_rivf78       1.00      0.137E+06 -0.137E+06  0.100E-17 -0.137E-12
    512 no_rivf79       1.00      0.137E+06 -0.137E+06  0.100E-17 -0.137E-12
    513 no_rivf80       1.00      0.128E+06 -0.128E+06  0.100E-17 -0.128E-12
    514 no_rivf81       1.00      0.115E+06 -0.115E+06  0.100E-17 -0.115E-12
    515 no_rivf82       1.00      0.106E+06 -0.106E+06  0.100E-17 -0.106E-12
    516 no_rivf83       1.00      0.100E+06 -0.100E+06  0.100E-17 -0.100E-12
    517 no_rivf84       1.00      0.893E+05 -0.893E+05  0.100E-17 -0.893E-13
    518 no_rivf85       1.00      0.821E+05 -0.821E+05  0.100E-17 -0.821E-13
    519 no_rivf86       1.00      0.788E+05 -0.788E+05  0.100E-17 -0.788E-13
    520 no_rivf87       1.00      0.755E+05 -0.755E+05  0.100E-17 -0.755E-13
    521 no_rivf88       1.00      0.711E+05 -0.711E+05  0.100E-17 -0.711E-13
    522 no_rivf89       1.00      0.663E+05 -0.663E+05  0.100E-17 -0.663E-13
    523 no_rivf90       1.00      0.628E+05 -0.628E+05  0.100E-17 -0.628E-13
    524 no_rivf91       1.00      0.593E+05 -0.593E+05  0.100E-17 -0.593E-13
    525 no_rivf92       1.00      0.564E+05 -0.564E+05  0.100E-17 -0.564E-13
    526 no_rivf93       1.00      0.531E+05 -0.531E+05  0.100E-17 -0.531E-13
    527 no_rivf94       1.00      0.508E+05 -0.508E+05  0.100E-17 -0.508E-13
    528 no_rivf95       1.00      0.487E+05 -0.487E+05  0.100E-17 -0.487E-13
    529 no_rivf96       1.00      0.464E+05 -0.464E+05  0.100E-17 -0.464E-13
    530 no_rivf97       1.00      0.448E+05 -0.448E+05  0.100E-17 -0.448E-13
    531 no_rivf98       1.00      0.432E+05 -0.432E+05  0.100E-17 -0.432E-13
    532 no_rivf99       1.00      0.427E+05 -0.427E+05  0.100E-17 -0.427E-13
    533 no_rivf100      1.00      0.416E+05 -0.416E+05  0.100E-17 -0.416E-13
    534 no_rivf101      1.00      0.404E+05 -0.404E+05  0.100E-17 -0.404E-13
    535 no_rivf102      1.00      0.386E+05 -0.386E+05  0.100E-17 -0.386E-13
    536 no_rivf103      1.00      0.367E+05 -0.367E+05  0.100E-17 -0.367E-13
    537 no_rivf104      1.00      0.344E+05 -0.344E+05  0.100E-17 -0.344E-13
    538 no_rivf105      1.00      0.333E+05 -0.333E+05  0.100E-17 -0.333E-13
    539 no_rivf106      1.00      0.323E+05 -0.323E+05  0.100E-17 -0.323E-13
    540 no_rivf107      1.00      0.305E+05 -0.305E+05  0.100E-17 -0.305E-13

 STATISTICS FOR RIVER FLOW RESIDUALS :
 MAXIMUM WEIGHTED RESIDUAL  :-0.305E-13 OBS#    540
 MINIMUM WEIGHTED RESIDUAL  :-0.108E-11 OBS#    433
 AVERAGE WEIGHTED RESIDUAL  :-0.581E-12
 # RESIDUALS >= 0. :      0
 # RESIDUALS < 0.  :    108
 NUMBER OF RUNS:      1  IN    108 OBSERVATIONS

 SUM OF SQUARED WEIGHTED RESIDUALS (RIVER FLOWS ONLY)  0.53574E-22

 SUM OF SQUARED WEIGHTED RESIDUALS (ALL DEPENDENT VARIABLES)   3.2450    

 STATISTICS FOR ALL RESIDUALS :
 AVERAGE WEIGHTED RESIDUAL  : 0.206E-02
 # RESIDUALS >= 0. :    365
 # RESIDUALS < 0.  :    175
 NUMBER OF RUNS  :    7  IN  540 OBSERVATIONS

 INTERPRETING THE CALCULATED RUNS STATISTIC VALUE OF     -22.6    
 NOTE: THE FOLLOWING APPLIES ONLY IF 
        # RESIDUALS >= 0 . IS GREATER THAN 10 AND 
        # RESIDUALS < 0.   IS GREATER THAN 10
 THE NEGATIVE VALUE MAY INDICATE TOO FEW RUNS:
    IF THE VALUE IS LESS THAN -1.28, THERE IS LESS THAN A 10 PERCENT
       CHANCE THE VALUES ARE RANDOM,
    IF THE VALUE IS LESS THAN -1.645, THERE IS LESS THAN A 5 PERCENT
       CHANCE THE VALUES ARE RANDOM,
    IF THE VALUE IS LESS THAN -1.96, THERE IS LESS THAN A 2.5 PERCENT
       CHANCE THE VALUES ARE RANDOM.


 ORDERED DEPENDENT-VARIABLE WEIGHTED RESIDUALS
 NUMBER OF RESIDUALS INCLUDED:       540
    -0.516     -0.463     -0.413     -0.366     -0.314     -0.251     -0.186    
    -0.140     -0.110     -0.807E-01 -0.508E-01 -0.364E-01 -0.360E-01 -0.355E-01
    -0.351E-01 -0.349E-01 -0.348E-01 -0.346E-01 -0.341E-01 -0.318E-01 -0.312E-01
    -0.248E-01 -0.247E-01 -0.245E-01 -0.245E-01 -0.239E-01 -0.235E-01 -0.211E-01
    -0.209E-01 -0.198E-01 -0.196E-01 -0.183E-01 -0.183E-01 -0.174E-01 -0.165E-01
    -0.154E-01 -0.152E-01 -0.143E-01 -0.135E-01 -0.128E-01 -0.983E-02 -0.812E-02
    -0.782E-02 -0.781E-02 -0.683E-02 -0.648E-02 -0.617E-02 -0.435E-02 -0.428E-02
    -0.359E-02 -0.353E-02 -0.334E-02 -0.321E-02 -0.300E-02 -0.275E-02 -0.230E-02
    -0.229E-02 -0.216E-02 -0.200E-02 -0.193E-02 -0.131E-02 -0.121E-02 -0.110E-02
    -0.904E-03 -0.705E-03 -0.539E-03 -0.149E-03 -0.108E-11 -0.108E-11 -0.108E-11
    -0.108E-11 -0.108E-11 -0.108E-11 -0.108E-11 -0.108E-11 -0.108E-11 -0.108E-11
    -0.107E-11 -0.107E-11 -0.107E-11 -0.107E-11 -0.106E-11 -0.106E-11 -0.106E-11
    -0.106E-11 -0.106E-11 -0.105E-11 -0.105E-11 -0.105E-11 -0.104E-11 -0.104E-11
    -0.104E-11 -0.104E-11 -0.103E-11 -0.103E-11 -0.103E-11 -0.102E-11 -0.102E-11
    -0.102E-11 -0.101E-11 -0.101E-11 -0.101E-11 -0.100E-11 -0.625E-12 -0.625E-12
    -0.625E-12 -0.625E-12 -0.625E-12 -0.622E-12 -0.620E-12 -0.619E-12 -0.619E-12
    -0.618E-12 -0.617E-12 -0.617E-12 -0.616E-12 -0.616E-12 -0.616E-12 -0.615E-12
    -0.615E-12 -0.615E-12 -0.614E-12 -0.614E-12 -0.614E-12 -0.612E-12 -0.611E-12
    -0.610E-12 -0.609E-12 -0.609E-12 -0.608E-12 -0.607E-12 -0.606E-12 -0.605E-12
    -0.604E-12 -0.604E-12 -0.602E-12 -0.601E-12 -0.599E-12 -0.599E-12 -0.137E-12
    -0.137E-12 -0.137E-12 -0.137E-12 -0.137E-12 -0.137E-12 -0.137E-12 -0.137E-12
    -0.128E-12 -0.115E-12 -0.106E-12 -0.100E-12 -0.893E-13 -0.821E-13 -0.788E-13
    -0.755E-13 -0.711E-13 -0.663E-13 -0.628E-13 -0.593E-13 -0.564E-13 -0.531E-13
    -0.508E-13 -0.487E-13 -0.464E-13 -0.448E-13 -0.432E-13 -0.427E-13 -0.416E-13
    -0.404E-13 -0.386E-13 -0.367E-13 -0.344E-13 -0.333E-13 -0.323E-13 -0.305E-13
      0.00       0.00       0.00       0.00       0.00       0.00       0.00    
      0.00       0.00       0.00       0.00       0.00       0.00       0.00    
      0.00       0.00       0.00       0.00       0.00       0.00       0.00    
      0.00       0.00       0.00       0.00       0.00       0.00       0.00    
      0.00       0.00       0.00       0.00       0.00       0.00       0.00    
      0.00       0.00       0.00       0.00       0.00       0.00       0.00    
      0.00       0.00       0.00       0.00       0.00       0.00       0.00    
      0.00       0.00       0.00       0.00       0.00       0.00       0.00    
      0.00       0.00       0.00       0.00       0.00       0.00       0.00    
      0.00       0.00       0.00       0.00       0.00       0.00       0.00    
      0.00       0.00       0.00       0.00       0.00       0.00       0.00    
      0.00       0.00       0.00       0.00       0.00       0.00       0.00    
      0.00       0.00       0.00       0.00       0.00       0.00       0.00    
      0.00       0.00       0.00       0.00       0.00       0.00       0.00    
      0.00       0.00       0.00       0.00       0.00       0.00       0.00    
      0.00       0.00       0.00       0.00       0.00       0.00       0.00    
      0.00       0.00       0.00       0.00       0.00       0.00       0.00    
      0.00       0.00       0.00       0.00       0.00       0.00       0.00    
      0.00       0.00       0.00       0.00       0.00       0.00       0.00    
      0.00       0.00       0.00       0.00       0.00       0.00       0.00    
      0.00       0.00       0.00       0.00       0.00       0.00       0.00    
      0.00       0.00       0.00       0.00       0.00       0.00       0.00    
      0.00       0.00       0.00       0.00       0.00       0.00       0.00    
      0.00       0.00       0.00       0.00       0.00       0.00       0.00    
      0.00       0.00       0.00       0.00       0.00       0.00       0.00    
      0.00       0.00       0.00       0.00       0.00       0.00       0.00    
      0.00       0.00       0.00       0.00       0.00       0.00       0.00    
      0.00       0.00       0.00       0.00       0.00       0.00       0.00    
      0.00       0.00       0.00       0.00       0.00       0.00       0.00    
      0.00       0.00       0.00       0.00       0.00       0.00       0.00    
      0.00       0.00       0.00       0.00       0.00       0.00       0.00    
      0.00       0.00       0.00       0.00       0.00       0.00       0.00    
      0.00       0.00       0.00       0.00       0.00       0.00       0.00    
      0.00       0.00       0.00       0.00       0.00       0.00       0.00    
      0.00       0.00       0.00       0.00       0.00       0.00       0.00    
      0.00       0.00       0.00       0.00       0.00       0.00       0.00    
      0.00       0.00       0.00       0.00       0.00       0.00       0.00    
      0.00       0.00       0.00       0.00       0.00       0.00       0.00    
      0.00       0.00       0.00       0.00       0.00       0.00       0.00    
      0.00       0.00       0.00       0.00       0.00       0.00       0.00    
      0.00       0.00       0.00       0.00       0.00       0.00       0.00    
      0.00       0.00       0.00       0.00       0.00       0.00       0.00    
      0.00       0.00       0.00       0.00       0.00       0.00       0.00    
      0.00       0.00       0.00       0.00       0.00       0.00       0.00    
      0.00       0.00       0.00       0.00       0.00       0.00       0.00    
      0.00       0.00       0.00       0.00       0.00       0.00       0.00    
      0.00       0.00      0.257E-03  0.423E-03  0.937E-03  0.946E-03  0.109E-02
     0.121E-02  0.138E-02  0.456E-02  0.570E-02  0.632E-02  0.790E-02  0.913E-02
     0.970E-02  0.145E-01  0.197E-01  0.197E-01  0.250E-01  0.275E-01  0.301E-01
     0.337E-01  0.392E-01  0.401E-01  0.419E-01  0.426E-01  0.436E-01  0.443E-01
     0.460E-01  0.512E-01  0.562E-01  0.613E-01  0.661E-01  0.127      0.179    
     0.227      0.275      0.320      0.369      0.435      0.536      0.712    
     0.880    

 CORRELATION BETWEEN ORDERED WEIGHTED RESIDUALS AND NORMAL ORDER STATISTICS
 FOR OBSERVATIONS =    0.250    

 --------------------------------------------------------------------------
 COMMENTS ON THE INTERPRETATION OF THE CORRELATION BETWEEN
 WEIGHTED RESIDUALS AND NORMAL ORDER STATISTICS:

 Generally, IF the reported CORRELATION is GREATER than the critical value,
 at the selected significance level (usually 5 or 10%), the hypothesis
 that the weighted residuals are INDEPENDENT AND NORMALLY DISTRIBUTED
 would be ACCEPTED.  HOWEVER, in this case, conditions are outside of
 the range of published critical values as discussed below.

 The sum of the number of observations and prior information items is   540
 which is greater than 200, the maximum value for which critical values are
 published.  Therefore, the critical values for the 5 and 10% significance
 levels are greater than 0.987 and 0.989, respectively.

 CORRELATIONS GREATER THAN these critical values suggest that, probably,
 the weighted residuals ARE INDEPENDENT AND NORMALLY DISTRIBUTED.

 Correlations LESS THAN these critical values clearly indicate that we CAN
 REJECT the hypothesis.

 The Kolmogorov-Smirnov test can be used to further evaluate the residuals.
 --------------------------------------------------------------------------

